data_image0
_chemical_formula_structural       Ag201
_chemical_formula_sum              "Ag201"
_cell_length_a       26.3448
_cell_length_b       26.3448
_cell_length_c       26.3448
_cell_angle_alpha    90.0
_cell_angle_beta     90.0
_cell_angle_gamma    90.0

_space_group_name_H-M_alt    "P 1"
_space_group_IT_number       1

loop_
  _space_group_symop_operation_xyz
  'x, y, z'

loop_
  _atom_site_type_symbol
  _atom_site_label
  _atom_site_symmetry_multiplicity
  _atom_site_fract_x
  _atom_site_fract_y
  _atom_site_fract_z
  _atom_site_occupancy
  Ag  Ag1       1.0  0.1940970958215663  0.42412315333576267  0.42412315333576267  1.0000
  Ag  Ag2       1.0  0.26936806770216515  0.34618267324101915  0.42269844295648484  1.0000
  Ag  Ag3       1.0  0.26936806770216515  0.42269844295648484  0.34618267324101915  1.0000
  Ag  Ag4       1.0  0.34618267324101915  0.26936806770216515  0.42269844295648484  1.0000
  Ag  Ag5       1.0  0.42412315333576267  0.1940970958215663  0.42412315333576267  1.0000
  Ag  Ag6       1.0  0.42269844295648484  0.26936806770216515  0.34618267324101915  1.0000
  Ag  Ag7       1.0  0.34618267324101915  0.42269844295648484  0.26936806770216515  1.0000
  Ag  Ag8       1.0  0.42269844295648484  0.34618267324101915  0.26936806770216515  1.0000
  Ag  Ag9       1.0  0.42412315333576267  0.42412315333576267  0.1940970958215663  1.0000
  Ag  Ag10      1.0  0.3462151206310164  0.3462151206310164  0.3462151206310164  1.0000
  Ag  Ag11      1.0  0.3459187748625915  0.4226816586195379  0.4226816586195379  1.0000
  Ag  Ag12      1.0  0.4226816586195379  0.3459187748625915  0.4226816586195379  1.0000
  Ag  Ag13      1.0  0.4226816586195379  0.4226816586195379  0.3459187748625915  1.0000
  Ag  Ag14      1.0  0.2707958405453828  0.2707958405453828  0.5  1.0000
  Ag  Ag15      1.0  0.1958268531171237  0.348281540569676  0.5  1.0000
  Ag  Ag16      1.0  0.1940970958215663  0.42412315333576267  0.5758768466642374  1.0000
  Ag  Ag17      1.0  0.26936806770216515  0.34618267324101915  0.5773015570435153  1.0000
  Ag  Ag18      1.0  0.27006163683155693  0.4233983742522244  0.5  1.0000
  Ag  Ag19      1.0  0.26936806770216515  0.42269844295648484  0.653817326758981  1.0000
  Ag  Ag20      1.0  0.348281540569676  0.1958268531171237  0.5  1.0000
  Ag  Ag21      1.0  0.34618267324101915  0.26936806770216515  0.5773015570435153  1.0000
  Ag  Ag22      1.0  0.42412315333576267  0.1940970958215663  0.5758768466642374  1.0000
  Ag  Ag23      1.0  0.4233983742522244  0.27006163683155693  0.5  1.0000
  Ag  Ag24      1.0  0.42269844295648484  0.26936806770216515  0.653817326758981  1.0000
  Ag  Ag25      1.0  0.34604173878716105  0.34604173878716105  0.5  1.0000
  Ag  Ag26      1.0  0.3459187748625915  0.4226816586195379  0.5773183413804622  1.0000
  Ag  Ag27      1.0  0.4226816586195379  0.3459187748625915  0.5773183413804622  1.0000
  Ag  Ag28      1.0  0.42268413576872854  0.42268413576872854  0.5  1.0000
  Ag  Ag29      1.0  0.3462151206310164  0.3462151206310164  0.6537848793689837  1.0000
  Ag  Ag30      1.0  0.34618267324101915  0.42269844295648484  0.730631932297835  1.0000
  Ag  Ag31      1.0  0.42269844295648484  0.34618267324101915  0.730631932297835  1.0000
  Ag  Ag32      1.0  0.4226816586195379  0.4226816586195379  0.6540812251374085  1.0000
  Ag  Ag33      1.0  0.42412315333576267  0.42412315333576267  0.8059029041784337  1.0000
  Ag  Ag34      1.0  0.2707958405453828  0.5  0.2707958405453828  1.0000
  Ag  Ag35      1.0  0.1958268531171237  0.5  0.348281540569676  1.0000
  Ag  Ag36      1.0  0.1940970958215663  0.5758768466642374  0.42412315333576267  1.0000
  Ag  Ag37      1.0  0.27006163683155693  0.5  0.4233983742522244  1.0000
  Ag  Ag38      1.0  0.26936806770216515  0.5773015570435153  0.34618267324101915  1.0000
  Ag  Ag39      1.0  0.26936806770216515  0.653817326758981  0.42269844295648484  1.0000
  Ag  Ag40      1.0  0.348281540569676  0.5  0.1958268531171237  1.0000
  Ag  Ag41      1.0  0.34618267324101915  0.5773015570435153  0.26936806770216515  1.0000
  Ag  Ag42      1.0  0.4233983742522244  0.5  0.27006163683155693  1.0000
  Ag  Ag43      1.0  0.42412315333576267  0.5758768466642374  0.1940970958215663  1.0000
  Ag  Ag44      1.0  0.34604173878716105  0.5  0.34604173878716105  1.0000
  Ag  Ag45      1.0  0.3459187748625915  0.5773183413804622  0.4226816586195379  1.0000
  Ag  Ag46      1.0  0.42268413576872854  0.5  0.42268413576872854  1.0000
  Ag  Ag47      1.0  0.4226816586195379  0.5773183413804622  0.3459187748625915  1.0000
  Ag  Ag48      1.0  0.42269844295648484  0.653817326758981  0.26936806770216515  1.0000
  Ag  Ag49      1.0  0.3462151206310164  0.6537848793689837  0.3462151206310164  1.0000
  Ag  Ag50      1.0  0.34618267324101915  0.730631932297835  0.42269844295648484  1.0000
  Ag  Ag51      1.0  0.4226816586195379  0.6540812251374085  0.4226816586195379  1.0000
  Ag  Ag52      1.0  0.42269844295648484  0.730631932297835  0.34618267324101915  1.0000
  Ag  Ag53      1.0  0.42412315333576267  0.8059029041784337  0.42412315333576267  1.0000
  Ag  Ag54      1.0  0.19221426657253046  0.5  0.5  1.0000
  Ag  Ag55      1.0  0.1940970958215663  0.5758768466642374  0.5758768466642374  1.0000
  Ag  Ag56      1.0  0.27006163683155693  0.5  0.5766016257477757  1.0000
  Ag  Ag57      1.0  0.27006163683155693  0.5766016257477757  0.5  1.0000
  Ag  Ag58      1.0  0.1958268531171237  0.5  0.651718459430324  1.0000
  Ag  Ag59      1.0  0.2707958405453828  0.5  0.7292041594546173  1.0000
  Ag  Ag60      1.0  0.26936806770216515  0.5773015570435153  0.653817326758981  1.0000
  Ag  Ag61      1.0  0.1958268531171237  0.651718459430324  0.5  1.0000
  Ag  Ag62      1.0  0.26936806770216515  0.653817326758981  0.5773015570435153  1.0000
  Ag  Ag63      1.0  0.2707958405453828  0.7292041594546173  0.5  1.0000
  Ag  Ag64      1.0  0.3467180502414139  0.5  0.5  1.0000
  Ag  Ag65      1.0  0.3459187748625915  0.5773183413804622  0.5773183413804622  1.0000
  Ag  Ag66      1.0  0.42268413576872854  0.5  0.5773158642312715  1.0000
  Ag  Ag67      1.0  0.42268413576872854  0.5773158642312715  0.5  1.0000
  Ag  Ag68      1.0  0.34604173878716105  0.5  0.653958261212839  1.0000
  Ag  Ag69      1.0  0.34618267324101915  0.5773015570435153  0.730631932297835  1.0000
  Ag  Ag70      1.0  0.4233983742522244  0.5  0.7299383631684431  1.0000
  Ag  Ag71      1.0  0.4226816586195379  0.5773183413804622  0.6540812251374085  1.0000
  Ag  Ag72      1.0  0.348281540569676  0.5  0.8041731468828763  1.0000
  Ag  Ag73      1.0  0.42412315333576267  0.5758768466642374  0.8059029041784337  1.0000
  Ag  Ag74      1.0  0.34604173878716105  0.653958261212839  0.5  1.0000
  Ag  Ag75      1.0  0.34618267324101915  0.730631932297835  0.5773015570435153  1.0000
  Ag  Ag76      1.0  0.4226816586195379  0.6540812251374085  0.5773183413804622  1.0000
  Ag  Ag77      1.0  0.4233983742522244  0.7299383631684431  0.5  1.0000
  Ag  Ag78      1.0  0.3462151206310164  0.6537848793689837  0.6537848793689837  1.0000
  Ag  Ag79      1.0  0.42269844295648484  0.653817326758981  0.730631932297835  1.0000
  Ag  Ag80      1.0  0.42269844295648484  0.730631932297835  0.653817326758981  1.0000
  Ag  Ag81      1.0  0.348281540569676  0.8041731468828763  0.5  1.0000
  Ag  Ag82      1.0  0.42412315333576267  0.8059029041784337  0.5758768466642374  1.0000
  Ag  Ag83      1.0  0.5  0.2707958405453828  0.2707958405453828  1.0000
  Ag  Ag84      1.0  0.5  0.1958268531171237  0.348281540569676  1.0000
  Ag  Ag85      1.0  0.5  0.27006163683155693  0.4233983742522244  1.0000
  Ag  Ag86      1.0  0.5758768466642374  0.1940970958215663  0.42412315333576267  1.0000
  Ag  Ag87      1.0  0.5773015570435153  0.26936806770216515  0.34618267324101915  1.0000
  Ag  Ag88      1.0  0.5  0.348281540569676  0.1958268531171237  1.0000
  Ag  Ag89      1.0  0.5  0.4233983742522244  0.27006163683155693  1.0000
  Ag  Ag90      1.0  0.5773015570435153  0.34618267324101915  0.26936806770216515  1.0000
  Ag  Ag91      1.0  0.5758768466642374  0.42412315333576267  0.1940970958215663  1.0000
  Ag  Ag92      1.0  0.5  0.34604173878716105  0.34604173878716105  1.0000
  Ag  Ag93      1.0  0.5  0.42268413576872854  0.42268413576872854  1.0000
  Ag  Ag94      1.0  0.5773183413804622  0.3459187748625915  0.4226816586195379  1.0000
  Ag  Ag95      1.0  0.5773183413804622  0.4226816586195379  0.3459187748625915  1.0000
  Ag  Ag96      1.0  0.653817326758981  0.26936806770216515  0.42269844295648484  1.0000
  Ag  Ag97      1.0  0.653817326758981  0.42269844295648484  0.26936806770216515  1.0000
  Ag  Ag98      1.0  0.6537848793689837  0.3462151206310164  0.3462151206310164  1.0000
  Ag  Ag99      1.0  0.6540812251374085  0.4226816586195379  0.4226816586195379  1.0000
  Ag  Ag100     1.0  0.730631932297835  0.34618267324101915  0.42269844295648484  1.0000
  Ag  Ag101     1.0  0.730631932297835  0.42269844295648484  0.34618267324101915  1.0000
  Ag  Ag102     1.0  0.8059029041784337  0.42412315333576267  0.42412315333576267  1.0000
  Ag  Ag103     1.0  0.5  0.19221426657253046  0.5  1.0000
  Ag  Ag104     1.0  0.5  0.27006163683155693  0.5766016257477757  1.0000
  Ag  Ag105     1.0  0.5758768466642374  0.1940970958215663  0.5758768466642374  1.0000
  Ag  Ag106     1.0  0.5766016257477757  0.27006163683155693  0.5  1.0000
  Ag  Ag107     1.0  0.5  0.1958268531171237  0.651718459430324  1.0000
  Ag  Ag108     1.0  0.5  0.2707958405453828  0.7292041594546173  1.0000
  Ag  Ag109     1.0  0.5773015570435153  0.26936806770216515  0.653817326758981  1.0000
  Ag  Ag110     1.0  0.5  0.3467180502414139  0.5  1.0000
  Ag  Ag111     1.0  0.5  0.42268413576872854  0.5773158642312715  1.0000
  Ag  Ag112     1.0  0.5773183413804622  0.3459187748625915  0.5773183413804622  1.0000
  Ag  Ag113     1.0  0.5773158642312715  0.42268413576872854  0.5  1.0000
  Ag  Ag114     1.0  0.5  0.34604173878716105  0.653958261212839  1.0000
  Ag  Ag115     1.0  0.5  0.4233983742522244  0.7299383631684431  1.0000
  Ag  Ag116     1.0  0.5773015570435153  0.34618267324101915  0.730631932297835  1.0000
  Ag  Ag117     1.0  0.5773183413804622  0.4226816586195379  0.6540812251374085  1.0000
  Ag  Ag118     1.0  0.5  0.348281540569676  0.8041731468828763  1.0000
  Ag  Ag119     1.0  0.5758768466642374  0.42412315333576267  0.8059029041784337  1.0000
  Ag  Ag120     1.0  0.651718459430324  0.1958268531171237  0.5  1.0000
  Ag  Ag121     1.0  0.653817326758981  0.26936806770216515  0.5773015570435153  1.0000
  Ag  Ag122     1.0  0.7292041594546173  0.2707958405453828  0.5  1.0000
  Ag  Ag123     1.0  0.653958261212839  0.34604173878716105  0.5  1.0000
  Ag  Ag124     1.0  0.6540812251374085  0.4226816586195379  0.5773183413804622  1.0000
  Ag  Ag125     1.0  0.730631932297835  0.34618267324101915  0.5773015570435153  1.0000
  Ag  Ag126     1.0  0.7299383631684431  0.4233983742522244  0.5  1.0000
  Ag  Ag127     1.0  0.6537848793689837  0.3462151206310164  0.6537848793689837  1.0000
  Ag  Ag128     1.0  0.653817326758981  0.42269844295648484  0.730631932297835  1.0000
  Ag  Ag129     1.0  0.730631932297835  0.42269844295648484  0.653817326758981  1.0000
  Ag  Ag130     1.0  0.8041731468828763  0.348281540569676  0.5  1.0000
  Ag  Ag131     1.0  0.8059029041784337  0.42412315333576267  0.5758768466642374  1.0000
  Ag  Ag132     1.0  0.5  0.5  0.19221426657253046  1.0000
  Ag  Ag133     1.0  0.5  0.5766016257477757  0.27006163683155693  1.0000
  Ag  Ag134     1.0  0.5766016257477757  0.5  0.27006163683155693  1.0000
  Ag  Ag135     1.0  0.5758768466642374  0.5758768466642374  0.1940970958215663  1.0000
  Ag  Ag136     1.0  0.5  0.5  0.3467180502414139  1.0000
  Ag  Ag137     1.0  0.5  0.5773158642312715  0.42268413576872854  1.0000
  Ag  Ag138     1.0  0.5773158642312715  0.5  0.42268413576872854  1.0000
  Ag  Ag139     1.0  0.5773183413804622  0.5773183413804622  0.3459187748625915  1.0000
  Ag  Ag140     1.0  0.5  0.651718459430324  0.1958268531171237  1.0000
  Ag  Ag141     1.0  0.5  0.7292041594546173  0.2707958405453828  1.0000
  Ag  Ag142     1.0  0.5773015570435153  0.653817326758981  0.26936806770216515  1.0000
  Ag  Ag143     1.0  0.5  0.653958261212839  0.34604173878716105  1.0000
  Ag  Ag144     1.0  0.5  0.7299383631684431  0.4233983742522244  1.0000
  Ag  Ag145     1.0  0.5773183413804622  0.6540812251374085  0.4226816586195379  1.0000
  Ag  Ag146     1.0  0.5773015570435153  0.730631932297835  0.34618267324101915  1.0000
  Ag  Ag147     1.0  0.5  0.8041731468828763  0.348281540569676  1.0000
  Ag  Ag148     1.0  0.5758768466642374  0.8059029041784337  0.42412315333576267  1.0000
  Ag  Ag149     1.0  0.651718459430324  0.5  0.1958268531171237  1.0000
  Ag  Ag150     1.0  0.653817326758981  0.5773015570435153  0.26936806770216515  1.0000
  Ag  Ag151     1.0  0.7292041594546173  0.5  0.2707958405453828  1.0000
  Ag  Ag152     1.0  0.653958261212839  0.5  0.34604173878716105  1.0000
  Ag  Ag153     1.0  0.6540812251374085  0.5773183413804622  0.4226816586195379  1.0000
  Ag  Ag154     1.0  0.7299383631684431  0.5  0.4233983742522244  1.0000
  Ag  Ag155     1.0  0.730631932297835  0.5773015570435153  0.34618267324101915  1.0000
  Ag  Ag156     1.0  0.6537848793689837  0.6537848793689837  0.3462151206310164  1.0000
  Ag  Ag157     1.0  0.653817326758981  0.730631932297835  0.42269844295648484  1.0000
  Ag  Ag158     1.0  0.730631932297835  0.653817326758981  0.42269844295648484  1.0000
  Ag  Ag159     1.0  0.8041731468828763  0.5  0.348281540569676  1.0000
  Ag  Ag160     1.0  0.8059029041784337  0.5758768466642374  0.42412315333576267  1.0000
  Ag  Ag161     1.0  0.5  0.5  0.5  1.0000
  Ag  Ag162     1.0  0.5  0.5773158642312715  0.5773158642312715  1.0000
  Ag  Ag163     1.0  0.5773158642312715  0.5  0.5773158642312715  1.0000
  Ag  Ag164     1.0  0.5773158642312715  0.5773158642312715  0.5  1.0000
  Ag  Ag165     1.0  0.5  0.5  0.6532819497585861  1.0000
  Ag  Ag166     1.0  0.5  0.5766016257477757  0.7299383631684431  1.0000
  Ag  Ag167     1.0  0.5766016257477757  0.5  0.7299383631684431  1.0000
  Ag  Ag168     1.0  0.5773183413804622  0.5773183413804622  0.6540812251374085  1.0000
  Ag  Ag169     1.0  0.5  0.5  0.8077857334274696  1.0000
  Ag  Ag170     1.0  0.5758768466642374  0.5758768466642374  0.8059029041784337  1.0000
  Ag  Ag171     1.0  0.5  0.6532819497585861  0.5  1.0000
  Ag  Ag172     1.0  0.5  0.7299383631684431  0.5766016257477757  1.0000
  Ag  Ag173     1.0  0.5773183413804622  0.6540812251374085  0.5773183413804622  1.0000
  Ag  Ag174     1.0  0.5766016257477757  0.7299383631684431  0.5  1.0000
  Ag  Ag175     1.0  0.5  0.653958261212839  0.653958261212839  1.0000
  Ag  Ag176     1.0  0.5  0.7292041594546173  0.7292041594546173  1.0000
  Ag  Ag177     1.0  0.5773015570435153  0.653817326758981  0.730631932297835  1.0000
  Ag  Ag178     1.0  0.5773015570435153  0.730631932297835  0.653817326758981  1.0000
  Ag  Ag179     1.0  0.5  0.651718459430324  0.8041731468828763  1.0000
  Ag  Ag180     1.0  0.5  0.8077857334274696  0.5  1.0000
  Ag  Ag181     1.0  0.5758768466642374  0.8059029041784337  0.5758768466642374  1.0000
  Ag  Ag182     1.0  0.5  0.8041731468828763  0.651718459430324  1.0000
  Ag  Ag183     1.0  0.6532819497585861  0.5  0.5  1.0000
  Ag  Ag184     1.0  0.6540812251374085  0.5773183413804622  0.5773183413804622  1.0000
  Ag  Ag185     1.0  0.7299383631684431  0.5  0.5766016257477757  1.0000
  Ag  Ag186     1.0  0.7299383631684431  0.5766016257477757  0.5  1.0000
  Ag  Ag187     1.0  0.653958261212839  0.5  0.653958261212839  1.0000
  Ag  Ag188     1.0  0.653817326758981  0.5773015570435153  0.730631932297835  1.0000
  Ag  Ag189     1.0  0.7292041594546173  0.5  0.7292041594546173  1.0000
  Ag  Ag190     1.0  0.730631932297835  0.5773015570435153  0.653817326758981  1.0000
  Ag  Ag191     1.0  0.651718459430324  0.5  0.8041731468828763  1.0000
  Ag  Ag192     1.0  0.653958261212839  0.653958261212839  0.5  1.0000
  Ag  Ag193     1.0  0.653817326758981  0.730631932297835  0.5773015570435153  1.0000
  Ag  Ag194     1.0  0.730631932297835  0.653817326758981  0.5773015570435153  1.0000
  Ag  Ag195     1.0  0.7292041594546173  0.7292041594546173  0.5  1.0000
  Ag  Ag196     1.0  0.6537848793689837  0.6537848793689837  0.6537848793689837  1.0000
  Ag  Ag197     1.0  0.651718459430324  0.8041731468828763  0.5  1.0000
  Ag  Ag198     1.0  0.8077857334274696  0.5  0.5  1.0000
  Ag  Ag199     1.0  0.8059029041784337  0.5758768466642374  0.5758768466642374  1.0000
  Ag  Ag200     1.0  0.8041731468828763  0.5  0.651718459430324  1.0000
  Ag  Ag201     1.0  0.8041731468828763  0.651718459430324  0.5  1.0000
